/*--------------------------------*- C++ -*----------------------------------*\
| =========                 |                                                 |
| \\      /  F ield         | OpenFOAM: The Open Source CFD Toolbox           |
|  \\    /   O peration     | Version:  4.x                                   |
|   \\  /    A nd           | Web:      www.OpenFOAM.org                      |
|    \\/     M anipulation  |                                                 |
\*---------------------------------------------------------------------------*/
FoamFile
{
    version     2.0;
    format      ascii;
    class       dictionary;
    object      blockMeshDict;
}
// * * * * * * * * * * * * * * * * * * * * * * * * * * * * * * * * * * * * * //


convertToMeters 1;

vertices
(
    (10.30       -25     0)    
    (0           -25     0)     
    (0           30.6    0)     

    (10.30       -25     4160)     
    (0           -25     4160)     
    (0           30.6    4160)     
);


edges
(
arc 0 2 ( 35.30, 0 , 4150)
arc 3 5 ( 35.30, 0 , 4150)
);


blocks
(
    hex (0 1 2 2 3 4 5 5) 
    (10 10 10)            
    simpleGrading (1 1 1)
);


boundary                
( 
    inlet              
    { 
        type patch;    
        faces 
        ( 
            (0 1 2 2)  
        ); 
    }                  
    outlet             
    { 
        type patch;    
        faces 
        ( 
            (3 4 5 5) 
        ); 
    } 
    walls 
    { 
        type wall; 
        faces 
        ( 
            (0 3 2 5)         
            (2 5 1 4)        
            (1 0 3 4)       
        ); 
    } 
);

mergePatchPairs
(
);

// ************************************************************************* //
